/*--------------------------------*- C++ -*----------------------------------*\
| =========                 |                                                 |
| \\      /  F ield         | OpenFOAM: The Open Source CFD Toolbox           |
|  \\    /   O peration     | Version:  v2004                                 |
|   \\  /    A nd           | Website:  www.openfoam.com                      |
|    \\/     M anipulation  |                                                 |
\*---------------------------------------------------------------------------*/
FoamFile
{
    version     2.0;
    format      ascii;
    class       dictionary;
    object      blockMeshDict;
}
// * * * * * * * * * * * * * * * * * * * * * * * * * * * * * * * * * * * * * //

scale 0.1;

vertices
(
    (0      0      0)  //0
    (0.15   0      0)  //1
    (0.15   0.025  0)  //2
    (0      0.025  0)  //3
    (0.15   0.1    0)  //4
    (0      0.1    0)  //5
    (0.30  -0.025  0)  //6
    (0.30   0      0)  //7
    (0.30   0.025  0)  //8
    (0.30   0.1    0)  //9
    (0.40  -0.025  0)  //10
    (0.40   0      0)  //11
    (0.45   0.025  0)  //12
    (0.45   0.1    0)  //13

    (0      0      -0.1)  //14
    (0.15   0      -0.1)  //15
    (0.15   0.025  -0.1)  //16
    (0      0.025  -0.1)  //17
    (0.15   0.1    -0.1)  //18
    (0      0.1    -0.1)  //19
    (0.30  -0.025  -0.1)  //20
    (0.30   0      -0.1)  //21
    (0.30   0.025  -0.1)  //22
    (0.30   0.1    -0.1)  //23
    (0.40  -0.025  -0.1)  //24
    (0.40   0      -0.1)  //25
    (0.45   0.025  -0.1)  //26
    (0.45   0.1    -0.1)  //27
);

blocks
(
    hex (0 1  15 14 3 2  16 17) (60 1 20) simpleGrading (1 1 1)
    hex (3 2  16 17 5 4  18 19) (60 1 60) simpleGrading (1 1 1)
    hex (1 6  20 15 2 7  21 16) (60 1 20) simpleGrading (1 1 1)
    hex (2 8  22 16 4 9  23 18) (60 1 60) simpleGrading (1 1 1)
    hex (6 10 24 20 7 11 25 21) (40 1 20) simpleGrading (1 1 1)
    hex (8 12 26 22 9 13 27 23) (60 1 60) simpleGrading (1 1 1)
);

edges
(
);

boundary
(
    inlet
    {
        type patch;
        faces
        (
            (3 0 14 17)
            (5 3 17 19)
        );
    }
    outlet1
    {
        type patch;
        faces
        (
            (12 13 27 26)
        );
    }

    outlet2
    {
        type patch;
        faces
        (
            (10 11 25 24)
        );
    }
    upperWall
    {
        type wall;
        faces
        (
            (4 18 23 9)
            (5 19 18 4)
            (9 23 27 13)

        );
    }
    lowerWall
    {
        type wall;
        faces
        (
            (0 1  15 14)
            (1 6  20 15)
            (6 10 24 20)
        );
    }
    middleWall
    {
        type wall;
        faces
        (
            (2 16 21 7)
            (7 21 25 11)
            (2 8  22 16)
            (8 12 26 22)
        );
    }
);

mergePatchPairs
(
);

// ************************************************************************* //
