/*--------------------------------*- C++ -*----------------------------------*\
| =========                 |                                                 |
| \\      /  F ield         | OpenFOAM: The Open Source CFD Toolbox           |
|  \\    /   O peration     | Version:  v2004                                 |
|   \\  /    A nd           | Website:  www.openfoam.com                      |
|    \\/     M anipulation  |                                                 |
\*---------------------------------------------------------------------------*/
FoamFile
{
    version     2.0;
    format      ascii;
    class       dictionary;
    object      fvSolution;
}
// * * * * * * * * * * * * * * * * * * * * * * * * * * * * * * * * * * * * * //

solvers
{
    p
    {
        solver          GAMG;
        tolerance       1e-15;
        relTol          0.01;
        smoother        GaussSeidel;
    }

    U
    {
        solver          smoothSolver;
        smoother        symGaussSeidel;
        tolerance       1e-15;
        relTol          0.1;
    }
}

SIMPLE
{
    nNonOrthogonalCorrectors 0;
    // Uses the SIMPLE-C instead of the SIMPLE algorithm. 
    // Allows for larger relaxation factors and faster convergence
    consistent true;
    residualControl
    {
        U 1.e-06;
        p 1.e-06;
    }
}

relaxationFactors
{
    fields
    {
        //p             0.3; // consistent false;
        p               0.8; // consistent true;
    }
    equations
    {
      //U               0.7; // consistent false;
        U               0.9; // consistent true;
    }
}

// ************************************************************************* //
