/*--------------------------------*- C++ -*----------------------------------*\
| =========                 |                                                 |
| \\      /  F ield         | OpenFOAM: The Open Source CFD Toolbox           |
|  \\    /   O peration     | Version:  v2004                                 |
|   \\  /    A nd           | Website:  www.openfoam.com                      |
|    \\/     M anipulation  |                                                 |
\*---------------------------------------------------------------------------*/
FoamFile
{
    version     2.0;
    format      ascii;
    class       dictionary;
    object      dynamicMeshDict;
}
// * * * * * * * * * * * * * * * * * * * * * * * * * * * * * * * * * * * * * //

solver volumetricBSplinesMotionSolver;

volumetricBSplinesMotionSolverCoeffs
{
    duct
    {
        type cartesian;
        nCPsU   8;
        nCPsV   6;
        nCPsW   3;
        degreeU 3;
        degreeV 3;
        degreeW 2;
        controlPointsDefinition axisAligned;

        lowerCpBounds ( 0.1 -0.06  -0.11);
        upperCpBounds ( 0.2  0.12  0.01);

        confineX1movement false;
        confineX2movement false;
        confineX3movement true;
        confineBoundaryControlPoints false;
        boundUMinCPs ( (true true true) (true true true) );
        boundUMaxCPs ( (true true true) (true true true) );
    }
}

// ************************************************************************* //
