/*--------------------------------*- C++ -*----------------------------------*\
| =========                 |                                                 |
| \\      /  F ield         | OpenFOAM: The Open Source CFD Toolbox           |
|  \\    /   O peration     | Version:  2312                                  |
|   \\  /    A nd           | Website:  www.openfoam.com                      |
|    \\/     M anipulation  |                                                 |
\*---------------------------------------------------------------------------*/
FoamFile
{
    version     2.0;
    format      ascii;
    arch        "LSB;label=32;scalar=64";
    class       polyBoundaryMesh;
    location    "constant/polyMesh";
    object      boundary;
}
// * * * * * * * * * * * * * * * * * * * * * * * * * * * * * * * * * * * * * //

7
(
    inlet
    {
        type            patch;
        nFaces          80;
        startFace       27640;
    }
    outlet1
    {
        type            patch;
        nFaces          60;
        startFace       27720;
    }
    outlet2
    {
        type            patch;
        nFaces          20;
        startFace       27780;
    }
    upperWall
    {
        type            wall;
        inGroups        1(wall);
        nFaces          180;
        startFace       27800;
    }
    lowerWall
    {
        type            wall;
        inGroups        1(wall);
        nFaces          160;
        startFace       27980;
    }
    middleWall
    {
        type            wall;
        inGroups        1(wall);
        nFaces          220;
        startFace       28140;
    }
    defaultFaces
    {
        type            empty;
        inGroups        1(empty);
        nFaces          28000;
        startFace       28360;
    }
)

// ************************************************************************* //
